6
Iteration: 0, Potential Energy: -0.125106, Kinetic Energy: 0.000326, Total Energy: -0.124781
Ar 0.000127 0.000010 0.000119
Ar 0.000134 0.000009 0.499874
Ar 0.000002 0.499989 -0.499988
Ar 0.499873 0.000010 0.000133
Ar 0.499874 0.000117 0.499874
Ar 0.499989 0.499864 0.499989
6
Iteration: 1, Potential Energy: -0.174824, Kinetic Energy: 0.050130, Total Energy: -0.124694
Ar 0.016387 0.001262 0.015318
Ar 0.017281 0.001201 0.483815
Ar 0.000257 0.498709 -0.498606
Ar 0.483625 0.001382 0.017058
Ar 0.483880 0.014879 0.483873
Ar 0.498570 0.482565 0.498542
6
Iteration: 2, Potential Energy: -0.375222, Kinetic Energy: 0.246043, Total Energy: -0.129179
Ar 0.070270 0.004744 0.066638
Ar 0.074186 0.006244 0.430552
Ar 0.000985 0.495445 -0.494997
Ar 0.429918 0.006868 0.073300
Ar 0.432088 0.060831 0.432054
Ar 0.492552 0.425867 0.492453
6
Iteration: 3, Potential Energy: -0.317130, Kinetic Energy: 0.192283, Total Energy: -0.124847
Ar 0.037914 0.011567 0.036427
Ar 0.054608 -0.005390 0.453548
Ar 0.002262 0.490540 -0.489348
Ar 0.459009 -0.003458 0.053550
Ar 0.445038 0.054778 0.444745
Ar 0.501169 0.451964 0.501078
6
Iteration: 4, Potential Energy: -0.165527, Kinetic Energy: 0.040792, Total Energy: -0.124735
Ar 0.004100 0.019142 -0.001531
Ar 0.022403 -0.020136 0.481389
Ar 0.004068 0.483583 -0.481267
Ar 0.487844 -0.016904 0.019503
Ar 0.462279 0.002136 0.462680
Ar 0.519306 0.532178 0.519225
6
Iteration: 5, Potential Energy: -0.193034, Kinetic Energy: 0.068249, Total Energy: -0.124785
Ar 0.004257 0.025017 -0.007746
Ar 0.037605 -0.028758 0.474624
Ar 0.006326 0.473646 -0.469935
Ar 0.481336 -0.024518 0.031315
Ar 0.436728 -0.036954 0.438130
Ar 0.533748 0.591567 0.533612
6
Iteration: 6, Potential Energy: -0.258741, Kinetic Energy: 0.132969, Total Energy: -0.125773
Ar 0.041728 0.027023 0.019099
Ar 0.054151 -0.030865 0.436610
Ar 0.009054 0.460028 -0.454621
Ar 0.439814 -0.025771 0.052638
Ar 0.408805 -0.074289 0.400069
Ar 0.546448 0.643873 0.546205
6
Iteration: 7, Potential Energy: -0.233194, Kinetic Energy: 0.106975, Total Energy: -0.126218
Ar 0.066743 0.034221 0.060540
Ar 0.005149 -0.027605 0.401208
Ar 0.012602 0.442620 -0.435004
Ar 0.429469 -0.021095 -0.009549
Ar 0.427949 -0.121130 0.425135
Ar 0.558088 0.692990 0.557671
6
Iteration: 8, Potential Energy: -0.190310, Kinetic Energy: 0.065589, Total Energy: -0.124722
Ar 0.058777 0.064355 0.014595
Ar -0.014169 -0.048892 0.462074
Ar 0.017507 0.420641 -0.409995
Ar 0.472590 -0.031112 -0.036935
Ar 0.396184 -0.145446 0.401795
Ar 0.569111 0.740454 0.568467
6
Iteration: 9, Potential Energy: -0.262089, Kinetic Energy: 0.137267, Total Energy: -0.124822
Ar 0.097386 0.079448 -0.005730
Ar 0.011456 -0.070869 0.484940
Ar 0.024703 0.389135 -0.373844
Ar 0.461635 -0.039029 -0.021422
Ar 0.325077 -0.145641 0.337228
Ar 0.579743 0.786956 0.578828
6
Iteration: 10, Potential Energy: -0.332991, Kinetic Energy: 0.207853, Total Energy: -0.125138
Ar 0.124437 0.100265 -0.007891
Ar 0.000155 -0.077131 0.511481
Ar 0.038265 0.337928 -0.314491
Ar 0.489154 -0.040823 -0.039285
Ar 0.257907 -0.153040 0.261333
Ar 0.590082 0.832802 0.588852
6
Iteration: 11, Potential Energy: -0.240538, Kinetic Energy: 0.115699, Total Energy: -0.124839
Ar 0.150616 0.108326 0.025433
Ar -0.023326 -0.075257 0.537720
Ar 0.049338 0.294576 -0.270857
Ar 0.545455 -0.028475 -0.103473
Ar 0.177717 -0.177354 0.212569
Ar 0.600200 0.878184 0.598608
6
Iteration: 12, Potential Energy: -0.238309, Kinetic Energy: 0.113527, Total Energy: -0.124782
Ar 0.218045 0.146503 0.051325
Ar -0.028873 -0.078738 0.530210
Ar 0.047423 0.288069 -0.284025
Ar 0.540306 -0.004608 -0.141327
Ar 0.112952 -0.274449 0.235663
Ar 0.610147 0.923223 0.608154
6
Iteration: 13, Potential Energy: -0.229647, Kinetic Energy: 0.104667, Total Energy: -0.124980
Ar 0.274815 0.164514 0.061012
Ar -0.025241 -0.081438 0.506354
Ar 0.069454 0.263452 -0.263510
Ar 0.507915 0.026612 -0.172936
Ar 0.053102 -0.341114 0.251566
Ar 0.619954 0.967974 0.617515
6
Iteration: 14, Potential Energy: -0.248470, Kinetic Energy: 0.123652, Total Energy: -0.124817
Ar 0.278262 0.196636 0.096727
Ar -0.019134 -0.077361 0.479334
Ar 0.121809 0.220014 -0.223316
Ar 0.488719 0.047752 -0.236874
Ar 0.000697 -0.399510 0.257419
Ar 0.629646 1.012470 0.626710
6
Iteration: 15, Potential Energy: -0.240616, Kinetic Energy: 0.115379, Total Energy: -0.125237
Ar 0.315098 0.200452 0.151508
Ar -0.004092 -0.089959 0.426044
Ar 0.122832 0.189214 -0.218183
Ar 0.477889 0.073353 -0.272518
Ar -0.050960 -0.429792 0.277393
Ar 0.639234 1.056731 0.635757
6
Iteration: 16, Potential Energy: -0.223116, Kinetic Energy: 0.098367, Total Energy: -0.124750
Ar 0.331447 0.180686 0.154338
Ar 0.025241 -0.092282 0.356513
Ar 0.079506 0.182923 -0.170526
Ar 0.516655 0.082503 -0.283379
Ar -0.101585 -0.454610 0.298375
Ar 0.648735 1.100781 0.644680
6
Iteration: 17, Potential Energy: -0.281784, Kinetic Energy: 0.156490, Total Energy: -0.125294
Ar 0.328137 0.131947 0.132661
Ar 0.070010 -0.090992 0.260446
Ar 0.077078 0.164065 -0.108765
Ar 0.508251 0.105187 -0.257790
Ar -0.141652 -0.454875 0.319938
Ar 0.658175 1.144668 0.653510
6
Iteration: 18, Potential Energy: -0.307396, Kinetic Energy: 0.183011, Total Energy: -0.124384
Ar 0.416377 0.088551 0.143175
Ar 0.073289 -0.126169 0.149278
Ar 0.050078 0.128438 -0.092398
Ar 0.450674 0.134709 -0.196172
Ar -0.157992 -0.413971 0.333842
Ar 0.667574 1.188442 0.662275
6
Iteration: 19, Potential Energy: -0.278007, Kinetic Energy: 0.152636, Total Energy: -0.125371
Ar 0.446742 0.029401 0.212066
Ar 0.084577 -0.222273 0.091566
Ar 0.057765 0.134360 -0.097969
Ar 0.388752 0.172133 -0.210700
Ar -0.154782 -0.345751 0.334046
Ar 0.676945 1.232130 0.670992
6
Iteration: 20, Potential Energy: -0.256492, Kinetic Energy: 0.131781, Total Energy: -0.124711
Ar 0.422173 -0.038130 0.228546
Ar 0.138612 -0.262515 0.023916
Ar 0.004914 0.105701 -0.055636
Ar 0.406250 0.200456 -0.217516
Ar -0.158246 -0.281264 0.341016
Ar 0.686297 1.275751 0.679674
6
Iteration: 21, Potential Energy: -0.330197, Kinetic Energy: 0.204990, Total Energy: -0.125207
Ar 0.366655 -0.097373 0.214844
Ar 0.171733 -0.266602 -0.026517
Ar 0.006253 0.047601 -0.000174
Ar 0.384720 0.201699 -0.185316
Ar -0.124995 -0.204650 0.308833
Ar 0.695633 1.319325 0.688330
6
Iteration: 22, Potential Energy: -0.233772, Kinetic Energy: 0.124380, Total Energy: -0.109392
Ar 0.308320 -0.096592 0.218380
Ar 0.158977 -0.328275 -0.104698
Ar 0.062187 0.065304 0.012667
Ar 0.332829 0.166007 -0.116979
Ar -0.067269 -0.169306 0.293664
Ar 0.704956 1.362862 0.696967
6
Iteration: 23, Potential Energy: -0.380898, Kinetic Energy: 0.256659, Total Energy: -0.124239
Ar 0.280044 -0.102579 0.164918
Ar 0.142381 -0.309553 -0.115382
Ar -0.064413 0.044549 0.025495
Ar 0.475525 0.167954 -0.115037
Ar -0.047806 -0.206740 0.334419
Ar 0.714269 1.406369 0.705588
6
Iteration: 24, Potential Energy: -0.359465, Kinetic Energy: 0.235101, Total Energy: -0.124364
Ar 0.301561 -0.043611 0.105535
Ar 0.077492 -0.270353 -0.121358
Ar -0.142110 -0.035741 0.051769
Ar 0.585458 0.133518 -0.082931
Ar -0.045974 -0.233663 0.332790
Ar 0.723573 1.449850 0.714197
6
Iteration: 25, Potential Energy: -0.298287, Kinetic Energy: 0.174419, Total Energy: -0.123868
Ar 0.282523 0.027486 0.064960
Ar 0.030688 -0.264933 -0.142565
Ar -0.227052 -0.062999 0.068954
Ar 0.671327 0.082094 -0.036972
Ar 0.009642 -0.274959 0.322826
Ar 0.732872 1.493311 0.722796
6
Iteration: 26, Potential Energy: -0.325220, Kinetic Energy: 0.200176, Total Energy: -0.125045
Ar 0.233413 0.050793 0.011661
Ar 0.011900 -0.235319 -0.109039
Ar -0.277006 -0.090712 0.096980
Ar 0.720817 0.025346 0.016772
Ar 0.068709 -0.286862 0.252238
Ar 0.742167 1.536754 0.731386
6
Iteration: 27, Potential Energy: -0.309687, Kinetic Energy: 0.185782, Total Energy: -0.123905
Ar 0.198614 0.057698 -0.013789
Ar -0.045930 -0.202488 -0.162147
Ar -0.273100 -0.138905 0.139077
Ar 0.739597 -0.031773 0.071595
Ar 0.129360 -0.264715 0.225293
Ar 0.751458 1.580183 0.739971
6
Iteration: 28, Potential Energy: -0.274675, Kinetic Energy: 0.150583, Total Energy: -0.124092
Ar 0.163016 0.053270 -0.021201
Ar -0.108697 -0.179180 -0.228661
Ar -0.214099 -0.191636 0.177726
Ar 0.741389 -0.088452 0.125227
Ar 0.157646 -0.217603 0.198359
Ar 0.760746 1.623602 0.748551
6
Iteration: 29, Potential Energy: -0.277577, Kinetic Energy: 0.153879, Total Energy: -0.123698
Ar 0.094949 0.076333 -0.084837
Ar -0.147395 -0.138123 -0.213275
Ar -0.166287 -0.230451 0.159650
Ar 0.729035 -0.145385 0.178133
Ar 0.219666 -0.229386 0.203201
Ar 0.770032 1.667012 0.757128
6
Iteration: 30, Potential Energy: -0.308662, Kinetic Energy: 0.184611, Total Energy: -0.124051
Ar 0.074113 0.099128 -0.081876
Ar -0.235821 -0.142730 -0.215814
Ar -0.112643 -0.248742 0.125689
Ar 0.692045 -0.204607 0.230343
Ar 0.302990 -0.213464 0.175957
Ar 0.779317 1.710415 0.765702
6
Iteration: 31, Potential Energy: -0.270630, Kinetic Energy: 0.148966, Total Energy: -0.121665
Ar 0.037442 0.058540 -0.052476
Ar -0.295304 -0.130354 -0.217137
Ar -0.010174 -0.243164 0.092278
Ar 0.655656 -0.267610 0.287689
Ar 0.323780 -0.171225 0.115374
Ar 0.788599 1.753812 0.774273
6
Iteration: 32, Potential Energy: -0.283314, Kinetic Energy: 0.159356, Total Energy: -0.123958
Ar 0.012123 0.069497 -0.067519
Ar -0.290090 -0.110238 -0.168645
Ar -0.023122 -0.338727 0.068862
Ar 0.625535 -0.325663 0.340641
Ar 0.377673 -0.092073 0.043818
Ar 0.797880 1.797204 0.782843
6
Iteration: 33, Potential Energy: -0.255882, Kinetic Energy: 0.131816, Total Energy: -0.124066
Ar 0.053102 0.053033 -0.054789
Ar -0.287068 -0.131070 -0.102726
Ar -0.039822 -0.370768 0.012773
Ar 0.570871 -0.365414 0.368837
Ar 0.395757 -0.026372 -0.015505
Ar 0.807160 1.840592 0.791411
6
Iteration: 34, Potential Energy: -0.264040, Kinetic Energy: 0.140045, Total Energy: -0.123994
Ar 0.036640 0.005539 -0.035735
Ar -0.311226 -0.127296 -0.046572
Ar -0.007629 -0.378919 -0.042078
Ar 0.507389 -0.394628 0.383594
Ar 0.458387 0.011328 -0.059187
Ar 0.816438 1.883976 0.799978
6
Iteration: 35, Potential Energy: -0.219403, Kinetic Energy: 0.095368, Total Energy: -0.124035
Ar 0.045662 -0.026518 -0.014153
Ar -0.329617 -0.127285 0.005173
Ar 0.026968 -0.391885 -0.094823
Ar 0.438925 -0.417686 0.389382
Ar 0.492345 0.036017 -0.094122
Ar 0.825716 1.927357 0.808544
6
Iteration: 36, Potential Energy: -0.213716, Kinetic Energy: 0.089925, Total Energy: -0.123791
Ar 0.077289 -0.028459 0.006291
Ar -0.299229 -0.144837 0.047689
Ar 0.037433 -0.410766 -0.138137
Ar 0.365346 -0.435925 0.386488
Ar 0.484168 0.049251 -0.119439
Ar 0.834993 1.970736 0.817108
6
Iteration: 37, Potential Energy: -0.279525, Kinetic Energy: 0.154995, Total Energy: -0.124530
Ar 0.122160 -0.068602 0.008335
Ar -0.215699 -0.174979 0.073826
Ar 0.032392 -0.371721 -0.149344
Ar 0.285245 -0.447817 0.372382
Ar 0.431631 0.049007 -0.130871
Ar 0.844270 2.014112 0.825672
6
Iteration: 38, Potential Energy: -0.329244, Kinetic Energy: 0.205360, Total Energy: -0.123884
Ar 0.166535 -0.086564 0.076612
Ar -0.174708 -0.227847 0.113553
Ar 0.017227 -0.372498 -0.179803
Ar 0.193395 -0.444222 0.336624
Ar 0.444006 0.073645 -0.181220
Ar 0.853545 2.057486 0.834235
6
Iteration: 39, Potential Energy: -0.315185, Kinetic Energy: 0.185553, Total Energy: -0.129632
Ar 0.215265 -0.125623 0.134111
Ar -0.173531 -0.275796 0.152664
Ar 0.024991 -0.360244 -0.180260
Ar 0.107726 -0.433494 0.279978
Ar 0.462729 0.094299 -0.229290
Ar 0.862820 2.100859 0.842797
6
Iteration: 40, Potential Energy: -0.251443, Kinetic Energy: 0.127123, Total Energy: -0.124320
Ar 0.241576 -0.147138 0.123851
Ar -0.260008 -0.244114 0.097313
Ar 0.042255 -0.319758 -0.097275
Ar 0.142192 -0.530885 0.280102
Ar 0.461889 0.097666 -0.255349
Ar 0.872095 2.144230 0.851359
6
Iteration: 41, Potential Energy: -0.257084, Kinetic Energy: 0.132801, Total Energy: -0.124283
Ar 0.311704 -0.148331 0.177449
Ar -0.323148 -0.215222 0.055140
Ar 0.020827 -0.349937 -0.054696
Ar 0.162686 -0.559553 0.224065
Ar 0.446561 0.085445 -0.261877
Ar 0.881370 2.187599 0.859920
6
Iteration: 42, Potential Energy: -0.241926, Kinetic Energy: 0.117820, Total Energy: -0.124106
Ar 0.354909 -0.188595 0.211887
Ar -0.361542 -0.195398 0.013038
Ar -0.021375 -0.338862 -0.031740
Ar 0.215445 -0.568299 0.188094
Ar 0.421919 0.060185 -0.249759
Ar 0.890644 2.230968 0.868480
6
Iteration: 43, Potential Energy: -0.228288, Kinetic Energy: 0.103821, Total Energy: -0.124467
Ar 0.368054 -0.237479 0.215219
Ar -0.401421 -0.174645 -0.028649
Ar -0.031228 -0.305929 -0.007956
Ar 0.274312 -0.578541 0.164335
Ar 0.390364 0.022258 -0.219990
Ar 0.899918 2.274335 0.877041
6
Iteration: 44, Potential Energy: -0.282270, Kinetic Energy: 0.158118, Total Energy: -0.124152
Ar 0.369200 -0.215708 0.188128
Ar -0.420629 -0.159938 -0.066655
Ar 0.008327 -0.281167 0.041396
Ar 0.285082 -0.624872 0.115084
Ar 0.348828 -0.036018 -0.163553
Ar 0.909191 2.317702 0.885601
6
Iteration: 45, Potential Energy: -0.346973, Kinetic Energy: 0.222761, Total Energy: -0.124212
Ar 0.397598 -0.258955 0.212998
Ar -0.403242 -0.155300 -0.096523
Ar 0.032476 -0.266288 0.069881
Ar 0.279036 -0.592554 0.064833
Ar 0.275667 -0.087970 -0.145350
Ar 0.918465 2.361068 0.894160
6
Iteration: 46, Potential Energy: -0.326827, Kinetic Energy: 0.202826, Total Energy: -0.124001
Ar 0.456447 -0.332227 0.287734
Ar -0.353352 -0.158260 -0.115444
Ar 0.000066 -0.280924 0.094475
Ar 0.260379 -0.508906 0.007883
Ar 0.208722 -0.124116 -0.177368
Ar 0.927738 2.404434 0.902720
6
Iteration: 47, Potential Energy: -0.331500, Kinetic Energy: 0.206309, Total Energy: -0.125191
Ar 0.477926 -0.400866 0.327310
Ar -0.269308 -0.166959 -0.129734
Ar -0.062552 -0.268224 0.134567
Ar 0.282639 -0.446465 -0.044715
Ar 0.134284 -0.165285 -0.198708
Ar 0.937011 2.447799 0.911279
6
Iteration: 48, Potential Energy: -0.304848, Kinetic Energy: 0.180944, Total Energy: -0.123904
Ar 0.467616 -0.471637 0.322559
Ar -0.310255 -0.160628 -0.179750
Ar -0.020028 -0.283536 0.176248
Ar 0.316022 -0.431120 -0.006210
Ar 0.100361 -0.144241 -0.232685
Ar 0.946284 2.491163 0.919838
6
Iteration: 49, Potential Energy: -0.261476, Kinetic Energy: 0.136904, Total Energy: -0.124572
Ar 0.451968 -0.541739 0.330769
Ar -0.411823 -0.165042 -0.195133
Ar 0.025499 -0.283936 0.167214
Ar 0.324968 -0.383721 -0.010359
Ar 0.153832 -0.160089 -0.220888
Ar 0.955557 2.534527 0.928397
6
Iteration: 50, Potential Energy: -0.244626, Kinetic Energy: 0.120567, Total Energy: -0.124059
Ar 0.418087 -0.593258 0.316839
Ar -0.490778 -0.171796 -0.204369
Ar 0.024893 -0.253515 0.154768
Ar 0.428009 -0.402278 -0.007189
Ar 0.154960 -0.157045 -0.197006
Ar 0.964830 2.577891 0.936956
6
Iteration: 51, Potential Energy: -0.237352, Kinetic Energy: 0.113208, Total Energy: -0.124143
Ar 0.371123 -0.629865 0.288291
Ar -0.560348 -0.179304 -0.210457
Ar 0.051689 -0.250284 0.159498
Ar 0.478015 -0.395219 0.004616
Ar 0.185418 -0.166582 -0.187464
Ar 0.974102 2.621254 0.945515
6
Iteration: 52, Potential Energy: -0.277388, Kinetic Energy: 0.153470, Total Energy: -0.123918
Ar 0.315085 -0.636787 0.240901
Ar -0.625844 -0.187083 -0.215195
Ar 0.105396 -0.283632 0.195370
Ar 0.465585 -0.367435 0.021443
Ar 0.256404 -0.189679 -0.196593
Ar 0.983375 2.664617 0.954074
6
Iteration: 53, Potential Energy: -0.293100, Kinetic Energy: 0.168682, Total Energy: -0.124418
Ar 0.252209 -0.665234 0.191064
Ar -0.689875 -0.195001 -0.219470
Ar 0.160114 -0.288814 0.195617
Ar 0.512975 -0.366862 0.075744
Ar 0.271930 -0.192070 -0.205587
Ar 0.992647 2.707980 0.962633
6
Iteration: 54, Potential Energy: -0.213989, Kinetic Energy: 0.089757, Total Energy: -0.124231
Ar 0.211870 -0.713407 0.141834
Ar -0.753188 -0.202997 -0.223548
Ar 0.178269 -0.249235 0.170909
Ar 0.570907 -0.368442 0.096349
Ar 0.290221 -0.217261 -0.156734
Ar 1.001920 2.751343 0.971191
6
Iteration: 55, Potential Energy: -0.244186, Kinetic Energy: 0.120217, Total Energy: -0.123969
Ar 0.188160 -0.700397 0.088194
Ar -0.816055 -0.211046 -0.227504
Ar 0.210368 -0.264102 0.220752
Ar 0.547515 -0.363783 0.110001
Ar 0.358821 -0.255377 -0.171193
Ar 1.011192 2.794705 0.979750
6
Iteration: 56, Potential Energy: -0.286750, Kinetic Energy: 0.162685, Total Energy: -0.124065
Ar 0.190692 -0.621359 0.040294
Ar -0.878663 -0.219137 -0.231389
Ar 0.212255 -0.306110 0.259061
Ar 0.562169 -0.399899 0.145356
Ar 0.393083 -0.291562 -0.201630
Ar 1.020464 2.838067 0.988308
6
Iteration: 57, Potential Energy: -0.318518, Kinetic Energy: 0.191321, Total Energy: -0.127197
Ar 0.217397 -0.541429 -0.017288
Ar -0.941095 -0.227261 -0.235226
Ar 0.206876 -0.328878 0.301561
Ar 0.549066 -0.451862 0.143297
Ar 0.438018 -0.332000 -0.189210
Ar 1.029737 2.881429 0.996867
6
Iteration: 58, Potential Energy: -0.247094, Kinetic Energy: 0.123248, Total Energy: -0.123846
Ar 0.174852 -0.561466 -0.012762
Ar -1.003401 -0.235407 -0.239032
Ar 0.233130 -0.342536 0.335414
Ar 0.495292 -0.494669 0.137585
Ar 0.561118 -0.290715 -0.226630
Ar 1.039009 2.924791 1.005425
6
Iteration: 59, Potential Energy: -0.243262, Kinetic Energy: 0.119299, Total Energy: -0.123963
Ar 0.120241 -0.552603 0.006231
Ar -1.065619 -0.243569 -0.242816
Ar 0.236593 -0.369130 0.340732
Ar 0.500422 -0.520787 0.095887
Ar 0.660082 -0.282064 -0.214018
Ar 1.048281 2.968153 1.013983
6
Iteration: 60, Potential Energy: -0.256774, Kinetic Energy: 0.132456, Total Energy: -0.124318
Ar 0.091080 -0.534991 0.032290
Ar -1.127764 -0.251745 -0.246582
Ar 0.256830 -0.407846 0.324320
Ar 0.486761 -0.515472 0.031697
Ar 0.735539 -0.301459 -0.164268
Ar 1.057553 3.011515 1.022542
6
Iteration: 61, Potential Energy: -0.249178, Kinetic Energy: 0.125158, Total Energy: -0.124020
Ar 0.075654 -0.537572 0.010239
Ar -1.189852 -0.259933 -0.250333
Ar 0.320015 -0.431541 0.331817
Ar 0.435201 -0.490100 -0.024535
Ar 0.792156 -0.335729 -0.098288
Ar 1.066825 3.054876 1.031100
6
Iteration: 62, Potential Energy: -0.261913, Kinetic Energy: 0.137927, Total Energy: -0.123985
Ar 0.063418 -0.532914 0.024962
Ar -1.251893 -0.268129 -0.254074
Ar 0.365742 -0.467911 0.290989
Ar 0.433133 -0.446206 -0.077565
Ar 0.813504 -0.383076 -0.023970
Ar 1.076098 3.098238 1.039658
6
Iteration: 63, Potential Energy: -0.285654, Kinetic Energy: 0.161893, Total Energy: -0.123761
Ar 0.090704 -0.516805 0.054138
Ar -1.313900 -0.276331 -0.257808
Ar 0.401250 -0.509284 0.225825
Ar 0.446747 -0.400334 -0.124992
Ar 0.789830 -0.438845 0.054621
Ar 1.085370 3.141599 1.048217
6
Iteration: 64, Potential Energy: -0.286272, Kinetic Energy: 0.161683, Total Energy: -0.124589
Ar 0.119263 -0.488559 0.040333
Ar -1.375883 -0.284537 -0.261537
Ar 0.424455 -0.562351 0.209431
Ar 0.449693 -0.369495 -0.147086
Ar 0.787830 -0.480018 0.102085
Ar 1.094642 3.184960 1.056775
6
Iteration: 65, Potential Energy: -0.232326, Kinetic Energy: 0.108364, Total Energy: -0.123962
Ar 0.119977 -0.438983 -0.013293
Ar -1.437848 -0.292745 -0.265263
Ar 0.399899 -0.631053 0.224860
Ar 0.466510 -0.374079 -0.102557
Ar 0.847549 -0.491461 0.090920
Ar 1.103914 3.228321 1.065333
6
Iteration: 66, Potential Energy: -0.205406, Kinetic Energy: 0.081821, Total Energy: -0.123585
Ar 0.112760 -0.407874 -0.045255
Ar -1.499799 -0.300954 -0.268987
Ar 0.396622 -0.655324 0.188244
Ar 0.528763 -0.405890 -0.019358
Ar 0.848468 -0.501640 0.071464
Ar 1.113186 3.271682 1.073891
6
Iteration: 67, Potential Energy: -0.215501, Kinetic Energy: 0.091675, Total Energy: -0.123827
Ar 0.169080 -0.400580 -0.052826
Ar -1.561740 -0.309164 -0.272709
Ar 0.358190 -0.702760 0.164716
Ar 0.513864 -0.362487 0.002366
Ar 0.898148 -0.540053 0.076004
Ar 1.122458 3.315044 1.082449
6
Iteration: 68, Potential Energy: -0.205033, Kinetic Energy: 0.081112, Total Energy: -0.123921
Ar 0.184256 -0.428025 -0.050830
Ar -1.623672 -0.317375 -0.276429
Ar 0.320420 -0.703761 0.115594
Ar 0.577232 -0.341526 0.042529
Ar 0.910034 -0.567718 0.078130
Ar 1.131730 3.358405 1.091007
6
Iteration: 69, Potential Energy: -0.201527, Kinetic Energy: 0.077501, Total Energy: -0.124026
Ar 0.195138 -0.391398 -0.076890
Ar -1.685599 -0.325586 -0.280149
Ar 0.340532 -0.730268 0.093829
Ar 0.612870 -0.367033 0.086456
Ar 0.896057 -0.587481 0.077189
Ar 1.141002 3.401766 1.099566
6
Iteration: 70, Potential Energy: -0.248574, Kinetic Energy: 0.122925, Total Energy: -0.125649
Ar 0.252992 -0.371459 -0.079248
Ar -1.747521 -0.333797 -0.283868
Ar 0.385473 -0.704918 0.062915
Ar 0.555809 -0.400363 0.115768
Ar 0.902974 -0.634589 0.076309
Ar 1.150274 3.445126 1.108124
6
Iteration: 71, Potential Energy: -0.260706, Kinetic Energy: 0.136743, Total Energy: -0.123963
Ar 0.291580 -0.370064 -0.094647
Ar -1.809440 -0.342009 -0.287587
Ar 0.400376 -0.728683 0.004800
Ar 0.602266 -0.388759 0.181905
Ar 0.855671 -0.658972 0.078847
Ar 1.159546 3.488487 1.116682
6
Iteration: 72, Potential Energy: -0.253092, Kinetic Energy: 0.127972, Total Energy: -0.125120
Ar 0.352442 -0.384786 -0.089636
Ar -1.871356 -0.350221 -0.291305
Ar 0.445134 -0.729722 -0.044102
Ar 0.636090 -0.377697 0.228730
Ar 0.768872 -0.689422 0.071074
Ar 1.168818 3.531848 1.125240
6
Iteration: 73, Potential Energy: -0.233368, Kinetic Energy: 0.109583, Total Energy: -0.123786
Ar 0.439636 -0.365932 -0.056693
Ar -1.933270 -0.358433 -0.295024
Ar 0.407957 -0.763763 -0.114803
Ar 0.623180 -0.373636 0.238624
Ar 0.784407 -0.713444 0.094097
Ar 1.178090 3.575209 1.133798
6
Iteration: 74, Potential Energy: -0.229622, Kinetic Energy: 0.105764, Total Energy: -0.123858
Ar 0.495917 -0.382130 -0.089340
Ar -1.995183 -0.366646 -0.298742
Ar 0.386134 -0.764854 -0.166048
Ar 0.658277 -0.408377 0.295614
Ar 0.767493 -0.696563 0.116160
Ar 1.187362 3.618570 1.142356
6
Iteration: 75, Potential Energy: -0.230056, Kinetic Energy: 0.105804, Total Energy: -0.124252
Ar 0.573606 -0.443724 -0.089957
Ar -2.057095 -0.374858 -0.302459
Ar 0.396108 -0.735195 -0.191042
Ar 0.671044 -0.408449 0.350700
Ar 0.719703 -0.699705 0.081844
Ar 1.196634 3.661930 1.150914
6
Iteration: 76, Potential Energy: -0.236165, Kinetic Energy: 0.112232, Total Energy: -0.123933
Ar 0.636610 -0.380545 -0.097003
Ar -2.119005 -0.383070 -0.306177
Ar 0.419806 -0.737935 -0.197317
Ar 0.675140 -0.429198 0.348632
Ar 0.681544 -0.774542 0.092394
Ar 1.205906 3.705291 1.159472
6
Iteration: 77, Potential Energy: -0.283577, Kinetic Energy: 0.158045, Total Energy: -0.125532
Ar 0.678875 -0.373773 -0.068493
Ar -2.180915 -0.391283 -0.309895
Ar 0.472967 -0.700530 -0.188811
Ar 0.675000 -0.482591 0.277531
Ar 0.638895 -0.800476 0.121637
Ar 1.215178 3.748652 1.168030
6
Iteration: 78, Potential Energy: -0.245404, Kinetic Energy: 0.120907, Total Energy: -0.124497
Ar 0.720802 -0.376846 -0.095510
Ar -2.242825 -0.399495 -0.313613
Ar 0.511286 -0.646551 -0.198740
Ar 0.676540 -0.496701 0.290816
Ar 0.609747 -0.872420 0.140458
Ar 1.224450 3.792013 1.176588
6
Iteration: 79, Potential Energy: -0.213068, Kinetic Energy: 0.089073, Total Energy: -0.123995
Ar 0.797799 -0.336077 -0.099078
Ar -2.304733 -0.407708 -0.317330
Ar 0.524576 -0.665774 -0.182325
Ar 0.673548 -0.523786 0.292716
Ar 0.575088 -0.902028 0.120871
Ar 1.233722 3.835373 1.185146
6
Iteration: 80, Potential Energy: -0.310116, Kinetic Energy: 0.185310, Total Energy: -0.124806
Ar 0.835331 -0.348914 -0.073717
Ar -2.366642 -0.415921 -0.321048
Ar 0.573531 -0.638400 -0.144279
Ar 0.665983 -0.576458 0.221878
Ar 0.548803 -0.899041 0.123461
Ar 1.242994 3.878734 1.193704
6
Iteration: 81, Potential Energy: -0.259054, Kinetic Energy: 0.134966, Total Energy: -0.124088
Ar 0.874850 -0.366969 -0.029681
Ar -2.428550 -0.424133 -0.324765
Ar 0.598327 -0.598874 -0.200162
Ar 0.688549 -0.586034 0.209846
Ar 0.514558 -0.946085 0.142500
Ar 1.252266 3.922094 1.202262
6
Iteration: 82, Potential Energy: -0.188341, Kinetic Energy: 0.064358, Total Energy: -0.123983
Ar 0.923336 -0.372366 0.003620
Ar -2.490458 -0.432346 -0.328483
Ar 0.607475 -0.590171 -0.261620
Ar 0.698994 -0.623151 0.228513
Ar 0.499114 -0.947421 0.147149
Ar 1.261538 3.965455 1.210820
6
Iteration: 83, Potential Energy: -0.190859, Kinetic Energy: 0.066763, Total Energy: -0.124097
Ar 0.926576 -0.418408 0.037225
Ar -2.552365 -0.440559 -0.332200
Ar 0.643200 -0.574832 -0.267389
Ar 0.719116 -0.648232 0.198526
Ar 0.492662 -0.926786 0.144460
Ar 1.270810 4.008816 1.219378
6
Iteration: 84, Potential Energy: -0.248780, Kinetic Energy: 0.124025, Total Energy: -0.124755
Ar 0.955886 -0.422126 0.004945
Ar -2.614272 -0.448771 -0.335917
Ar 0.705250 -0.557807 -0.208977
Ar 0.717775 -0.682660 0.188247
Ar 0.455280 -0.940811 0.123766
Ar 1.280082 4.052176 1.227936
6
Iteration: 85, Potential Energy: -0.210322, Kinetic Energy: 0.086249, Total Energy: -0.124073
Ar 1.033068 -0.403965 0.020738
Ar -2.676179 -0.456984 -0.339635
Ar 0.705924 -0.583489 -0.171357
Ar 0.729331 -0.697734 0.159396
Ar 0.418501 -0.953365 0.094364
Ar 1.289354 4.095537 1.236494
6
Iteration: 86, Potential Energy: -0.187441, Kinetic Energy: 0.063469, Total Energy: -0.123972
Ar 1.080112 -0.413865 0.051032
Ar -2.738086 -0.465197 -0.343352
Ar 0.697573 -0.592863 -0.200375
Ar 0.738578 -0.738338 0.182328
Ar 0.423196 -0.928634 0.065315
Ar 1.298626 4.138897 1.245052
6
Iteration: 87, Potential Energy: -0.243895, Kinetic Energy: 0.119570, Total Energy: -0.124326
Ar 1.084880 -0.453450 0.074806
Ar -2.799993 -0.473409 -0.347070
Ar 0.701778 -0.620608 -0.168641
Ar 0.759469 -0.752329 0.163008
Ar 0.445968 -0.882461 0.024286
Ar 1.307898 4.182258 1.253610
6
Iteration: 88, Potential Energy: -0.227648, Kinetic Energy: 0.104364, Total Energy: -0.123284
Ar 1.048010 -0.519137 0.087857
Ar -2.861899 -0.481622 -0.350787
Ar 0.711526 -0.628412 -0.163385
Ar 0.830436 -0.757928 0.195644
Ar 0.454758 -0.838520 -0.031498
Ar 1.317170 4.225618 1.262168
6
Iteration: 89, Potential Energy: -0.201143, Kinetic Energy: 0.077836, Total Energy: -0.123307
Ar 1.047935 -0.524524 0.050860
Ar -2.923806 -0.489835 -0.354504
Ar 0.786663 -0.595585 -0.159715
Ar 0.803281 -0.838593 0.237319
Ar 0.459486 -0.820443 -0.044686
Ar 1.326442 4.268979 1.270726
6
Iteration: 90, Potential Energy: -0.208408, Kinetic Energy: 0.084091, Total Energy: -0.124317
Ar 1.098060 -0.533922 0.082462
Ar -2.985712 -0.498048 -0.358222
Ar 0.777107 -0.611115 -0.177353
Ar 0.759776 -0.878802 0.211222
Ar 0.515055 -0.790453 -0.037393
Ar 1.335714 4.312339 1.279284
6
Iteration: 91, Potential Energy: -0.217483, Kinetic Energy: 0.093449, Total Energy: -0.124034
Ar 1.105463 -0.567366 0.101146
Ar -3.047618 -0.506260 -0.361939
Ar 0.848321 -0.597540 -0.182311
Ar 0.777647 -0.902021 0.195074
Ar 0.471202 -0.782512 -0.039813
Ar 1.344986 4.355700 1.287842
6
Iteration: 92, Potential Energy: -0.270019, Kinetic Energy: 0.145643, Total Energy: -0.124376
Ar 1.095113 -0.625648 0.138019
Ar -3.109525 -0.514473 -0.365656
Ar 0.878595 -0.614650 -0.166956
Ar 0.816488 -0.883006 0.150860
Ar 0.465071 -0.761283 -0.052668
Ar 1.354258 4.399060 1.296400
6
Iteration: 93, Potential Energy: -0.272204, Kinetic Energy: 0.147447, Total Energy: -0.124758
Ar 1.123405 -0.668218 0.205503
Ar -3.171431 -0.522686 -0.369373
Ar 0.857347 -0.635546 -0.176477
Ar 0.804055 -0.879614 0.092892
Ar 0.523094 -0.736356 -0.057502
Ar 1.363530 4.442421 1.304958
6
Iteration: 94, Potential Energy: -0.199810, Kinetic Energy: 0.075881, Total Energy: -0.123928
Ar 1.132542 -0.705737 0.241947
Ar -3.233337 -0.530899 -0.373091
Ar 0.870300 -0.604446 -0.225103
Ar 0.823281 -0.953437 0.124278
Ar 0.534411 -0.691262 -0.081547
Ar 1.372802 4.485781 1.313516
6
Iteration: 95, Potential Energy: -0.179248, Kinetic Energy: 0.055509, Total Energy: -0.123739
Ar 1.104589 -0.761357 0.254098
Ar -3.295243 -0.539111 -0.376808
Ar 0.893639 -0.593176 -0.244055
Ar 0.848473 -0.966114 0.129568
Ar 0.566469 -0.669383 -0.084878
Ar 1.382074 4.529141 1.322074
6
Iteration: 96, Potential Energy: -0.216971, Kinetic Energy: 0.092823, Total Energy: -0.124148
Ar 1.113451 -0.777502 0.276359
Ar -3.357149 -0.547324 -0.380525
Ar 0.929716 -0.594681 -0.246904
Ar 0.808064 -0.977569 0.083782
Ar 0.614572 -0.675426 -0.063344
Ar 1.391346 4.572502 1.330632
6
Iteration: 97, Potential Energy: -0.233192, Kinetic Energy: 0.109042, Total Energy: -0.124150
Ar 1.090630 -0.803553 0.270687
Ar -3.419055 -0.555537 -0.384242
Ar 0.970932 -0.611517 -0.232820
Ar 0.808858 -0.991750 0.050004
Ar 0.648018 -0.653504 -0.042819
Ar 1.400618 4.615862 1.339190
6
Iteration: 98, Potential Energy: -0.250205, Kinetic Energy: 0.125936, Total Energy: -0.124269
Ar 1.046414 -0.824116 0.241512
Ar -3.480961 -0.563750 -0.387960
Ar 1.005368 -0.652721 -0.190747
Ar 0.843381 -1.013225 0.019064
Ar 0.675908 -0.605411 -0.029618
Ar 1.409890 4.659223 1.347748
6
Iteration: 99, Potential Energy: -0.281390, Kinetic Energy: 0.158569, Total Energy: -0.122821
Ar 1.024759 -0.788954 0.216569
Ar -3.542867 -0.571963 -0.391677
Ar 1.047082 -0.733648 -0.115756
Ar 0.832298 -1.004976 -0.072849
Ar 0.719566 -0.603043 0.007406
Ar 1.419162 4.702583 1.356306
